Circuit: * C:\Users\victo\OneDrive\Área de Trabalho\PROJETOS\PELTIER\spice\Draft1.asc

Direct Newton iteration failed to find .op point.  (Use ".option noopiter" to skip.)
Starting Gmin stepping
Gmin = 10
Gmin = 1.07374
Gmin = 0.115292
Gmin = 0.0123794
Gmin = 0.00132923
Gmin = 0.000142725
Gmin = 1.5325e-005
Gmin = 1.6455e-006
Gmin = 1.76685e-007
Gmin = 1.89714e-008
Gmin = 2.03704e-009
Gmin = 2.18725e-010
Gmin = 2.34854e-011
Gmin = 2.52173e-012
Gmin = 2.70769e-013
Gmin = 0
Gmin stepping succeeded in finding the operating point.


Date: Thu Feb 14 02:12:42 2019
Total elapsed time: 0.679 seconds.

tnom = 27
temp = 27
method = modified trap
totiter = 3305
traniter = 2828
tranpoints = 1182
accept = 1137
rejected = 45
matrix size = 133
fillins = 106
solver = Normal
Thread vector: 22.0/12.0[2] 12.0/8.9[2] 6.0/4.9[2] 2.9/3.8[1]  2592/500
Matrix Compiler1: 10.37 KB object code size  7.4/5.4/[1.6]
Matrix Compiler2: 12.61 KB object code size  4.5/6.3/[3.6]

