Circuit: * C:\Users\victo\OneDrive\Área de Trabalho\PROJETOS\PELTIER\spice\PELTIER.asc

Direct Newton iteration for .op point succeeded.

Date: Sat Jan 19 16:30:53 2019
Total elapsed time: 0.251 seconds.

tnom = 27
temp = 27
method = modified trap
totiter = 3486
traniter = 3474
tranpoints = 1494
accept = 1403
rejected = 91
matrix size = 21
fillins = 4
solver = Normal
Matrix Compiler1: 1.39 KB object code size  0.6/0.3/[0.2]
Matrix Compiler2: 1.60 KB object code size  0.3/0.4/[0.2]

